<routes>
    <route id="route_ns" edges="n_t t_s"/>
    <route id="route_nw" edges="n_t t_w"/>
    <route id="route_ne" edges="n_t t_e"/>
    <route id="route_we" edges="w_t t_e"/>
    <route id="route_wn" edges="w_t t_n"/>
    <route id="route_ws" edges="w_t t_s"/>
    <route id="route_ew" edges="e_t t_w"/>
    <route id="route_en" edges="e_t t_n"/>
    <route id="route_es" edges="e_t t_s"/>
    <route id="route_sn" edges="s_t t_n"/>
    <route id="route_se" edges="s_t t_e"/>
    <route id="route_sw" edges="s_t t_w"/>
    <flow id="flow_route_ns" route="route_ns" begin="0" end="3600" vehsPerHour="568" departSpeed="max" departLane="best"/>
    <flow id="flow_route_nw" route="route_nw" begin="0" end="3600" vehsPerHour="637" departSpeed="max" departLane="best"/>
    <flow id="flow_route_ne" route="route_ne" begin="0" end="3600" vehsPerHour="584" departSpeed="max" departLane="best"/>
    <flow id="flow_route_we" route="route_we" begin="0" end="3600" vehsPerHour="610" departSpeed="max" departLane="best"/>
    <flow id="flow_route_wn" route="route_wn" begin="0" end="3600" vehsPerHour="599" departSpeed="max" departLane="best"/>
    <flow id="flow_route_ws" route="route_ws" begin="0" end="3600" vehsPerHour="611" departSpeed="max" departLane="best"/>
    <flow id="flow_route_ew" route="route_ew" begin="0" end="3600" vehsPerHour="548" departSpeed="max" departLane="best"/>
    <flow id="flow_route_en" route="route_en" begin="0" end="3600" vehsPerHour="638" departSpeed="max" departLane="best"/>
    <flow id="flow_route_es" route="route_es" begin="0" end="3600" vehsPerHour="603" departSpeed="max" departLane="best"/>
    <flow id="flow_route_sn" route="route_sn" begin="0" end="3600" vehsPerHour="590" departSpeed="max" departLane="best"/>
    <flow id="flow_route_se" route="route_se" begin="0" end="3600" vehsPerHour="627" departSpeed="max" departLane="best"/>
    <flow id="flow_route_sw" route="route_sw" begin="0" end="3600" vehsPerHour="659" departSpeed="max" departLane="best"/>
</routes>
